11
	Energy:      -1.1584074
C          4.01106        0.80863       -0.36164
C          4.01549        1.63287        0.20458
C          3.94716        2.44029       -0.38143
C          3.95708        3.26426        0.18512
C          3.86243        4.07131       -0.39772
C          3.85751        4.89317        0.17196
C          3.70294        5.69692       -0.40258
C          3.66298        6.51348        0.17330
C          3.44265        7.30926       -0.39078
C          3.37518        8.12033        0.19027
C          3.12059        8.91002       -0.36791
